<?xml version="1.0" encoding="UTF-8"?>

<!-- generated on 2026-05-02T06:11:01.461091+08:00 by Eclipse SUMO netconvert 1.26.0
<netconvertConfiguration xmlns:xsi="http://www.w3.org/2001/XMLSchema-instance" xsi:noNamespaceSchemaLocation="http://sumo.dlr.de/xsd/netconvertConfiguration.xsd">

    <input>
        <node-files value="highway.nod.xml"/>
        <edge-files value="highway.edg.xml"/>
    </input>

    <output>
        <output-file value="highway.net.xml"/>
    </output>

</netconvertConfiguration>
-->

<net version="1.20" junctionCornerDetail="5" limitTurnSpeed="5.50" xmlns:xsi="http://www.w3.org/2001/XMLSchema-instance" xsi:noNamespaceSchemaLocation="http://sumo.dlr.de/xsd/net_file.xsd">

    <location netOffset="0.00,0.00" convBoundary="0.00,0.00,3000.00,0.00" origBoundary="0.00,0.00,3000.00,0.00" projParameter="!"/>

    <edge id="e0" from="n0" to="n1" priority="-1" spreadType="center">
        <lane id="e0_0" index="0" speed="33.33" length="3000.00" shape="0.00,-1.60 3000.00,-1.60"/>
        <lane id="e0_1" index="1" speed="33.33" length="3000.00" shape="0.00,1.60 3000.00,1.60"/>
    </edge>

    <junction id="n0" type="dead_end" x="0.00" y="0.00" incLanes="" intLanes="" shape="0.00,3.20 0.00,-3.20"/>
    <junction id="n1" type="dead_end" x="3000.00" y="0.00" incLanes="e0_0 e0_1" intLanes="" shape="3000.00,-3.20 3000.00,3.20"/>

</net>
