<nodes>
  <node id="n0" x="0"    y="0" type="priority"/>
  <node id="n1" x="3000" y="0" type="priority"/>
  <!-- x=3000: 3 km road. Increase to 5000/10000 for longer scenarios. -->
</nodes>
